/*--------------------------------*- C++ -*----------------------------------*\
| ========                 |                                                 |
| \      /  F ield         | OpenFOAM: The Open Source CFD Toolbox           |
|  \    /   O peration     | Version:  5.0                                   |
|   \  /    A nd           | Web:      www.OpenFOAM.org                      |
|    \/     M anipulation  |                                                 |
\*---------------------------------------------------------------------------*/
FoamFile
{
    version     9.0;
    format      ascii;
    class       dictionary;
    object      blockMeshDict;
}
// * * * * * * * * * * * * * * * * * * * * * * * * * * * * * * * * * * * * * //

convertToMeters 0.001; 

vertices 
(
    (0.0 -0.0 0.0)                                    // 0                  
    (4.499996430262064 -0.009817484830434334 0.0)     // 1                                                
    (4.499996430262064 0.009817484830434334 0.0)      // 2                                               
    (0.0 0.0 0.0)                                     // 3                
    (0.0 -0.0 300.0)                                  // 4                   
    (4.499996430262064 -0.009817484830434334 300.0)   // 5                                                  
    (4.499996430262064 0.009817484830434334 300.0)    // 6                                                 
    (0.0 0.0 300.0)                                   // 7                  
                                                      
    (4.564996378699182 -0.009959292944651721 0.0)     // 8                                                
    (5.31499578374286 -0.011595540416390776 0.0)      // 9                                               
    (5.31499578374286 0.011595540416390776 0.0)       // 10                                              
    (4.564996378699182 0.009959292944651721 0.0)      // 11                                              
                                                        
    (4.564996378699182 -0.009959292944651721 320.0)   // 12                                                  
    (5.31499578374286 -0.011595540416390776 320.0)    // 13                                                 
    (5.31499578374286 0.011595540416390776 320.0)     // 14                                                
    (4.564996378699182 0.009959292944651721 320.0)    // 15                                                
                                                      
);

blocks 
(
    // hex ( 0 1 2 3 4 5 6 7 ) fuel (30 1 30) simpleGrading (1 1 1)
    // hex ( 8 9 10 11 12 13 14 15 ) cladding (10 1 32) simpleGrading (1 1 1)
    hex ( 0 1 2 3 4 5 6 7 ) fuel (300 1 3200) simpleGrading (1 1 1)
    hex ( 8 9 10 11 12 13 14 15 ) cladding (100 1 3201) 
    simpleGrading 
    (
        1 
        1
        (
            (300.0 3200 1)
            (20.0 1 1)
        ) 
    )
);

edges 
(
);

boundary 
(
    fuelBottom
    {
        type patch;
        faces 
        (
            (0 3 2 1)
        );
    }

    fuelTop
    {
        type patch;
        faces 
        (
            (4 5 6 7)
        );
    }

    fuelOuter
    {
        type regionCoupledOFFBEAT;
        neighbourPatch cladInner;
        neighbourRegion region0;
        owner true;
        updateAMI true;
        faces 
        (
            (1 2 6 5)
        );
    }

    fuelFront
    {
        type wedge;
        faces 
        (
            (0 1 5 4)
        );
    }

    fuelBack
    {
        type wedge;
        faces 
        (
            (3 7 6 2)
        );
    }

    cladBottom
    {
        type patch;
        faces 
        (
            (8 11 10 9)
        );
    }

    cladTop
    {
        type patch;
        faces 
        (
            (12 13 14 15)
        );
    }

    cladInner
    {
        type regionCoupledOFFBEAT;
        neighbourPatch fuelOuter;
        neighbourRegion region0;
        owner false;
        updateAMI true;
        faces 
        (
            (8 12 15 11)
        );
    }

    cladOuter
    {
        type patch;
        faces 
        (
            (9 10 14 13)
        );
    }

    cladFront
    {
        type wedge;
        faces 
        (
            (8 9 13 12)
        );
    }

    cladBack
    {
        type wedge;
        faces 
        (
            (11 15 14 10)
        );
    }

);

mergePatchPairs 
(
);

