/*--------------------------------*- C++ -*----------------------------------*\
  =========                 |
  \\      /  F ield         | OpenFOAM: The Open Source CFD Toolbox
   \\    /   O peration     | Website:  https://openfoam.org
    \\  /    A nd           | Version:  9
     \\/     M anipulation  |
\*---------------------------------------------------------------------------*/
FoamFile
{
    format          ascii;
    class           dictionary;
    note            "mapp cell decompsition";
    object          mapCellProcDict;
}
// * * * * * * * * * * * * * * * * * * * * * * * * * * * * * * * * * * * * * //

zBottom 0.0;
zTop    0.3;
rMaxAbs 0.00531501;


// ************************************************************************* //
